Version 4
SHEET 1 1612 680
WIRE 1168 -64 384 -64
WIRE -96 0 -256 0
WIRE -96 16 -96 0
WIRE 992 16 720 16
WIRE -256 64 -256 0
WIRE 720 80 720 16
WIRE 992 96 992 16
WIRE 1168 96 1168 -64
WIRE -96 112 -96 96
WIRE 96 112 -96 112
WIRE 384 112 384 -64
WIRE 384 112 288 112
WIRE -96 128 -96 112
WIRE 656 128 528 128
WIRE -256 208 -256 144
WIRE -96 208 -256 208
WIRE 0 208 -96 208
WIRE 96 208 0 208
WIRE 320 208 288 208
WIRE 400 208 320 208
WIRE 528 208 528 128
WIRE 528 208 480 208
WIRE 720 224 720 176
WIRE 768 224 720 224
WIRE 864 224 832 224
WIRE 720 240 720 224
WIRE 320 256 320 208
WIRE 528 256 528 208
WIRE 864 256 864 224
WIRE 320 384 320 336
WIRE 528 384 528 336
WIRE 528 384 320 384
WIRE 720 384 720 320
WIRE 720 384 528 384
WIRE 864 384 864 336
WIRE 864 384 720 384
WIRE 992 384 992 176
WIRE 992 384 864 384
WIRE 1168 384 1168 176
WIRE 1168 384 992 384
WIRE 720 400 720 384
FLAG 0 208 0
FLAG 720 400 0
SYMBOL Optos\\PC817A 192 160 R0
SYMATTR InstName U1
SYMBOL res -112 112 R0
SYMATTR InstName R1
SYMATTR Value 1k
SYMBOL res -112 0 R0
SYMATTR InstName R2
SYMATTR Value 4.7k
SYMBOL npn 656 80 R0
SYMATTR InstName Q1
SYMATTR Value 2N3904
SYMBOL res 496 192 R90
WINDOW 0 0 56 VBottom 2
WINDOW 3 32 56 VTop 2
SYMATTR InstName R5
SYMATTR Value 2.2k
SYMBOL voltage -256 48 R0
WINDOW 123 0 0 Left 0
WINDOW 39 0 0 Left 0
SYMATTR InstName V1
SYMATTR Value 12v
SYMBOL voltage 1168 80 R0
WINDOW 123 0 0 Left 0
WINDOW 39 0 0 Left 0
SYMATTR InstName V2
SYMATTR Value 5v
SYMBOL res 304 240 R0
SYMATTR InstName R3
SYMATTR Value 10k
SYMBOL res 512 240 R0
SYMATTR InstName R4
SYMATTR Value 10k
SYMBOL res 736 336 R180
WINDOW 0 36 76 Left 2
WINDOW 3 36 40 Left 2
SYMATTR InstName R6
SYMATTR Value 10k
SYMBOL voltage 992 80 R0
WINDOW 123 0 0 Left 0
WINDOW 39 0 0 Left 0
SYMATTR InstName V3
SYMATTR Value 3.3v
SYMBOL LED 768 240 R270
WINDOW 0 32 32 VTop 2
WINDOW 3 0 32 VBottom 2
SYMATTR InstName D1
SYMATTR Value NSCW100
SYMATTR Description Diode
SYMATTR Type diode
SYMBOL res 848 240 R0
SYMATTR InstName R7
SYMATTR Value 220
TEXT -112 264 Left 2 !.tran 0 1s 0 1m
