Version 4
SHEET 1 1096 680
WIRE 256 128 -32 128
WIRE 320 128 256 128
WIRE 416 128 400 128
WIRE -32 176 -32 128
WIRE -352 224 -448 224
WIRE -96 224 -272 224
WIRE 256 240 256 128
WIRE 416 240 416 128
WIRE -448 288 -448 224
WIRE -32 288 -32 272
WIRE 48 288 -32 288
WIRE 160 288 112 288
WIRE 160 320 160 288
WIRE -32 336 -32 288
WIRE -448 432 -448 368
WIRE -32 432 -32 416
WIRE -32 432 -448 432
WIRE 160 432 160 400
WIRE 160 432 -32 432
WIRE 256 432 256 320
WIRE 256 432 160 432
WIRE 416 432 416 320
WIRE 416 432 256 432
WIRE 160 448 160 432
FLAG 160 448 0
SYMBOL voltage -448 272 R0
WINDOW 123 0 0 Left 0
WINDOW 39 0 0 Left 0
SYMATTR InstName V1
SYMATTR Value 3.3v
SYMBOL voltage 416 224 R0
WINDOW 123 0 0 Left 0
WINDOW 39 0 0 Left 0
SYMATTR InstName V2
SYMATTR Value 24v
SYMBOL npn -96 176 R0
SYMATTR InstName Q2
SYMATTR Value 2N3904
SYMBOL res -368 240 R270
WINDOW 0 32 56 VTop 2
WINDOW 3 0 56 VBottom 2
SYMATTR InstName R9
SYMATTR Value 1
SYMBOL res 240 224 R0
SYMATTR InstName R3
SYMATTR Value 10k
SYMBOL res 416 112 R90
WINDOW 0 0 56 VBottom 2
WINDOW 3 32 56 VTop 2
SYMATTR InstName R4
SYMATTR Value 10k
SYMBOL res -48 320 R0
SYMATTR InstName R5
SYMATTR Value 10k
SYMBOL LED 48 304 R270
WINDOW 0 32 32 VTop 2
WINDOW 3 0 32 VBottom 2
SYMATTR InstName D1
SYMATTR Value NSCW100
SYMATTR Description Diode
SYMATTR Type diode
SYMBOL res 144 304 R0
SYMATTR InstName R2
SYMATTR Value 1
TEXT -144 456 Left 2 !.tran 0 1s 0 1m
